Circuit: * C:\Users\John\Desktop\Monitoring_System\Hardware_Filter_SSS\Hardware_Filter_Simulation.asc

Direct Newton iteration failed to find .op point.  (Use ".option noopiter" to skip.)
Starting Gmin stepping
Gmin = 10
Gmin = 1.07374
Gmin = 0.115292
Gmin = 0.0123794
Gmin = 0.00132923
Gmin = 0.000142725
Gmin = 1.5325e-05
Gmin = 1.6455e-06
Gmin = 1.76685e-07
Gmin = 1.89714e-08
Gmin = 2.03704e-09
Gmin = 2.18725e-10
Gmin = 2.34854e-11
Gmin = 2.52173e-12
Gmin = 2.70769e-13
Gmin = 0
Gmin stepping succeeded in finding the operating point.

Heightened Def Con from 0.032889 to 0.032889
Heightened Def Con from 0.0340939 to 0.0340939
Heightened Def Con from 0.0496578 to 0.0496578
Heightened Def Con from 0.0997361 to 0.0997361
Heightened Def Con from 0.116427 to 0.116427
Heightened Def Con from 0.166531 to 0.166531

Date: Thu Jan 18 15:59:49 2024
Total elapsed time: 0.182 seconds.

tnom = 27
temp = 27
method = modified trap
totiter = 6182
traniter = 5832
tranpoints = 2082
accept = 1745
rejected = 343
matrix size = 42
fillins = 33
solver = Normal
Avg thread counts: 1.7/3.0/3.0/1.7
Matrix Compiler1: 3.60 KB object code size  0.9/0.6/[0.3]
Matrix Compiler2: 4.92 KB object code size  0.6/0.7/[0.3]

