Circuit: * C:\Users\aaron\OneDrive\Desktop\repos\Monitoring_System\Hardware_Filter_SSS\Hardware_Filter_Simulation.asc

Direct Newton iteration for .op point succeeded.

Date: Sat Dec 23 23:19:01 2023
Total elapsed time: 0.656 seconds.

tnom = 27
temp = 27
method = modified trap
totiter = 70671
traniter = 70649
tranpoints = 21060
accept = 14552
rejected = 6508
matrix size = 34
fillins = 19
solver = Normal
Avg thread counts: 1.0/1.1/1.1/1.0
Matrix Compiler1: 2.41 KB object code size  2.0/1.0/[0.7]
Matrix Compiler2: 3.42 KB object code size  0.4/0.5/[0.3]

