Circuit: * C:\Users\aaron\OneDrive\Desktop\repos\Monitoring_System\Hardware_Filter_SSS\Hardware_Filter_Simulation.asc

Direct Newton iteration failed to find .op point.  (Use ".option noopiter" to skip.)
Starting Gmin stepping
Gmin = 10
Gmin = 1.07374
Gmin = 0.115292
Gmin = 0.0123794
Gmin = 0.00132923
Gmin = 0.000142725
Gmin = 1.5325e-05
Gmin = 1.6455e-06
Gmin = 1.76685e-07
Gmin = 1.89714e-08
Gmin = 2.03704e-09
Gmin = 2.18725e-10
Gmin = 2.34854e-11
Gmin = 2.52173e-12
Gmin = 2.70769e-13
Gmin = 0
Gmin stepping succeeded in finding the operating point.

Heightened Def Con from 0.00826893 to 0.00826893
Heightened Def Con from 0.0165314 to 0.0165314
Heightened Def Con from 0.0331999 to 0.0331999
Heightened Def Con from 0.0498888 to 0.0498888
Heightened Def Con from 0.0665706 to 0.0665706
Heightened Def Con from 0.0832374 to 0.0832374
Heightened Def Con from 0.0998657 to 0.0998657
Heightened Def Con from 0.116563 to 0.116563
Heightened Def Con from 0.124959 to 0.124959
Heightened Def Con from 0.133168 to 0.133168
Heightened Def Con from 0.133314 to 0.133314
Heightened Def Con from 0.149894 to 0.149894
Heightened Def Con from 0.166544 to 0.166544
Heightened Def Con from 0.183149 to 0.183149
Heightened Def Con from 0.183253 to 0.183253
Heightened Def Con from 0.199777 to 0.199777
Heightened Def Con from 0.199929 to 0.199929

Date: Thu Mar 28 17:17:07 2024
Total elapsed time: 0.320 seconds.

tnom = 27
temp = 27
method = modified trap
totiter = 16972
traniter = 16622
tranpoints = 4776
accept = 3613
rejected = 1180
matrix size = 42
fillins = 33
solver = Normal
Avg thread counts: 1.1/1.5/1.5/1.1
Matrix Compiler1: 3.60 KB object code size  2.0/0.9/[0.7]
Matrix Compiler2: 4.92 KB object code size  0.4/0.4/[0.3]

