Circuit: * C:\Users\John\Desktop\Monitoring_System\Hardware_Filter_SSS\Hardware_Filter_Simulation.asc

Direct Newton iteration for .op point succeeded.

Date: Tue Dec 19 17:41:29 2023
Total elapsed time: 0.210 seconds.

tnom = 27
temp = 27
method = modified trap
totiter = 31681
traniter = 31659
tranpoints = 5878
accept = 4407
rejected = 1471
matrix size = 32
fillins = 19
solver = Normal
Avg thread counts: 1.1/1.7/1.8/1.1
Matrix Compiler1: 2.37 KB object code size  0.6/0.7/[0.2]
Matrix Compiler2: 3.31 KB object code size  0.5/0.4/[0.3]

