Circuit: * C:\Users\aaron\OneDrive\Desktop\repos\Monitoring_System\Hardware_Filter_SSS\Hardware_Filter_Simulation.asc

Direct Newton iteration failed to find .op point.  (Use ".option noopiter" to skip.)
Starting Gmin stepping
Gmin = 10
Gmin = 1.07374
Gmin = 0.115292
Gmin = 0.0123794
Gmin = 0.00132923
Gmin = 0.000142725
Gmin = 1.5325e-05
Gmin = 1.6455e-06
Gmin = 1.76685e-07
Gmin = 1.89714e-08
Gmin = 2.03704e-09
Gmin = 2.18725e-10
Gmin = 2.34854e-11
Gmin = 2.52173e-12
Gmin = 2.70769e-13
Gmin = 0
Gmin stepping succeeded in finding the operating point.

Heightened Def Con from 0.0165838 to 0.0165838
Heightened Def Con from 0.0332762 to 0.0332762
Heightened Def Con from 0.0498441 to 0.0498441
Heightened Def Con from 0.0665064 to 0.0665064
Heightened Def Con from 0.0666704 to 0.0666705
Heightened Def Con from 0.0666725 to 0.0666725
Heightened Def Con from 0.0832509 to 0.0832509
Heightened Def Con from 0.0999167 to 0.0999167
Heightened Def Con from 0.108312 to 0.108312
Heightened Def Con from 0.116544 to 0.116544
Heightened Def Con from 0.1332 to 0.1332
Heightened Def Con from 0.133335 to 0.133335
Heightened Def Con from 0.149846 to 0.149846
Heightened Def Con from 0.166595 to 0.166595
Heightened Def Con from 0.17497 to 0.17497
Heightened Def Con from 0.183185 to 0.183185
Heightened Def Con from 0.199828 to 0.199828

Date: Sat Mar 23 01:45:56 2024
Total elapsed time: 0.380 seconds.

tnom = 27
temp = 27
method = modified trap
totiter = 25317
traniter = 24967
tranpoints = 9535
accept = 6756
rejected = 2796
matrix size = 41
fillins = 35
solver = Normal
Avg thread counts: 1.1/1.2/1.2/1.1
Matrix Compiler1: 3.67 KB object code size  2.0/0.9/[0.6]
Matrix Compiler2: 4.88 KB object code size  0.5/0.5/[0.2]

