Circuit: * C:\Users\John\Desktop\Monitoring_System\Hardware_Filter_SSS\Hardware_Filter_Simulation.asc

Direct Newton iteration for .op point succeeded.

Date: Fri Jan  5 15:15:31 2024
Total elapsed time: 0.537 seconds.

tnom = 27
temp = 27
method = modified trap
totiter = 151359
traniter = 151337
tranpoints = 25238
accept = 18887
rejected = 6351
matrix size = 32
fillins = 19
solver = Normal
Avg thread counts: 1.0/1.2/1.2/1.0
Matrix Compiler1: 2.37 KB object code size  0.9/0.4/[0.2]
Matrix Compiler2: off  [0.3]/0.6/0.3

