Circuit: * C:\Users\John\Desktop\Monitoring_System\Hardware_Filter_SSS\Hardware_Filter_Simulation.asc

Direct Newton iteration failed to find .op point.  (Use ".option noopiter" to skip.)
Starting Gmin stepping
Gmin = 10
Gmin = 1.07374
Gmin = 0.115292
Gmin = 0.0123794
Gmin = 0.00132923
Gmin = 0.000142725
Gmin = 1.5325e-05
Gmin = 1.6455e-06
Gmin = 1.76685e-07
Gmin = 1.89714e-08
Gmin = 2.03704e-09
Gmin = 2.18725e-10
Gmin = 2.34854e-11
Gmin = 2.52173e-12
Gmin = 2.70769e-13
Gmin = 0
Gmin stepping succeeded in finding the operating point.

Heightened Def Con from 0.0165966 to 0.0165966
Heightened Def Con from 0.033233 to 0.033233
Heightened Def Con from 0.033327 to 0.033327
Heightened Def Con from 0.0499058 to 0.0499058
Heightened Def Con from 0.0664783 to 0.0664783
Heightened Def Con from 0.0666591 to 0.0666591
Heightened Def Con from 0.0832099 to 0.0832099
Heightened Def Con from 0.0997876 to 0.0997876
Heightened Def Con from 0.116496 to 0.116496
Heightened Def Con from 0.133229 to 0.133229
Heightened Def Con from 0.133326 to 0.133326
Heightened Def Con from 0.149798 to 0.149798
Heightened Def Con from 0.183207 to 0.183207
Heightened Def Con from 0.183325 to 0.183325
Heightened Def Con from 0.199846 to 0.199846

Date: Tue Mar 19 17:34:25 2024
Total elapsed time: 0.230 seconds.

tnom = 27
temp = 27
method = modified trap
totiter = 15097
traniter = 14747
tranpoints = 4277
accept = 3246
rejected = 1046
matrix size = 42
fillins = 33
solver = Normal
Avg thread counts: 1.3/2.0/2.1/1.3
Matrix Compiler1: 3.60 KB object code size  1.0/0.6/[0.3]
Matrix Compiler2: 4.92 KB object code size  0.6/0.6/[0.4]

